instances/data_GOC/Phase_0_Modified_RTS96/scenario_83/powersystem.raw
 0,  100.000000
rts96_spring_wday.raw / File written by to_psse.gms
5 / 19 / 2015
101, ' 101 ',138,2,1,1,1,1.00,0.00,1.1,0.9,1.1,0.9
102, ' 102 ',138,2,1,1,1,1.00,0.00,1.1,0.9,1.1,0.9
103, ' 103 ',138,1,1,1,1,1.00,0.00,1.1,0.9,1.1,0.9
104, ' 104 ',138,1,1,1,1,1.00,0.00,1.1,0.9,1.1,0.9
105, ' 105 ',138,1,1,1,1,1.00,0.00,1.1,0.9,1.1,0.9
106, ' 106 ',138,1,1,1,1,1.00,0.00,1.1,0.9,1.1,0.9
107, ' 107 ',138,2,1,1,1,1.00,0.00,1.1,0.9,1.1,0.9
108, ' 108 ',138,1,1,1,1,1.00,0.00,1.1,0.9,1.1,0.9
109, ' 109 ',138,1,1,1,1,1.00,0.00,1.1,0.9,1.1,0.9
110, ' 110 ',138,1,1,1,1,1.00,0.00,1.1,0.9,1.1,0.9
111, ' 111 ',230,1,1,1,1,1.00,0.00,1.1,0.9,1.1,0.9
112, ' 112 ',230,1,1,1,1,1.00,0.00,1.1,0.9,1.1,0.9
113, ' 113 ',230,3,1,1,1,1.00,0.00,1.1,0.9,1.1,0.9
114, ' 114 ',230,2,1,1,1,1.00,0.00,1.1,0.9,1.1,0.9
115, ' 115 ',230,2,1,1,1,1.00,0.00,1.1,0.9,1.1,0.9
116, ' 116 ',230,2,1,1,1,1.00,0.00,1.1,0.9,1.1,0.9
117, ' 117 ',230,1,1,1,1,1.00,0.00,1.1,0.9,1.1,0.9
118, ' 118 ',230,2,1,1,1,1.00,0.00,1.1,0.9,1.1,0.9
119, ' 119 ',230,1,1,1,1,1.00,0.00,1.1,0.9,1.1,0.9
120, ' 120 ',230,1,1,1,1,1.00,0.00,1.1,0.9,1.1,0.9
121, ' 121 ',230,2,1,1,1,1.00,0.00,1.1,0.9,1.1,0.9
122, ' 122 ',230,2,1,1,1,1.00,0.00,1.1,0.9,1.1,0.9
123, ' 123 ',230,2,1,1,1,1.00,0.00,1.1,0.9,1.1,0.9
124, ' 124 ',230,1,1,1,1,1.00,0.00,1.1,0.9,1.1,0.9
201, ' 201 ',138,2,1,1,1,1.00,0.00,1.1,0.9,1.1,0.9
202, ' 202 ',138,2,1,1,1,1.00,0.00,1.1,0.9,1.1,0.9
203, ' 203 ',138,1,1,1,1,1.00,0.00,1.1,0.9,1.1,0.9
204, ' 204 ',138,1,1,1,1,1.00,0.00,1.1,0.9,1.1,0.9
205, ' 205 ',138,1,1,1,1,1.00,0.00,1.1,0.9,1.1,0.9
206, ' 206 ',138,1,1,1,1,1.00,0.00,1.1,0.9,1.1,0.9
207, ' 207 ',138,2,1,1,1,1.00,0.00,1.1,0.9,1.1,0.9
208, ' 208 ',138,1,1,1,1,1.00,0.00,1.1,0.9,1.1,0.9
209, ' 209 ',138,1,1,1,1,1.00,0.00,1.1,0.9,1.1,0.9
210, ' 210 ',138,1,1,1,1,1.00,0.00,1.1,0.9,1.1,0.9
211, ' 211 ',230,1,1,1,1,1.00,0.00,1.1,0.9,1.1,0.9
212, ' 212 ',230,1,1,1,1,1.00,0.00,1.1,0.9,1.1,0.9
213, ' 213 ',230,2,1,1,1,1.00,0.00,1.1,0.9,1.1,0.9
214, ' 214 ',230,2,1,1,1,1.00,0.00,1.1,0.9,1.1,0.9
215, ' 215 ',230,2,1,1,1,1.00,0.00,1.1,0.9,1.1,0.9
216, ' 216 ',230,2,1,1,1,1.00,0.00,1.1,0.9,1.1,0.9
217, ' 217 ',230,1,1,1,1,1.00,0.00,1.1,0.9,1.1,0.9
218, ' 218 ',230,2,1,1,1,1.00,0.00,1.1,0.9,1.1,0.9
219, ' 219 ',230,1,1,1,1,1.00,0.00,1.1,0.9,1.1,0.9
220, ' 220 ',230,1,1,1,1,1.00,0.00,1.1,0.9,1.1,0.9
221, ' 221 ',230,2,1,1,1,1.00,0.00,1.1,0.9,1.1,0.9
222, ' 222 ',230,2,1,1,1,1.00,0.00,1.1,0.9,1.1,0.9
223, ' 223 ',230,2,1,1,1,1.00,0.00,1.1,0.9,1.1,0.9
224, ' 224 ',230,1,1,1,1,1.00,0.00,1.1,0.9,1.1,0.9
301, ' 301 ',138,2,1,1,1,1.00,0.00,1.1,0.9,1.1,0.9
302, ' 302 ',138,2,1,1,1,1.00,0.00,1.1,0.9,1.1,0.9
303, ' 303 ',138,1,1,1,1,1.00,0.00,1.1,0.9,1.1,0.9
304, ' 304 ',138,1,1,1,1,1.00,0.00,1.1,0.9,1.1,0.9
305, ' 305 ',138,1,1,1,1,1.00,0.00,1.1,0.9,1.1,0.9
306, ' 306 ',138,1,1,1,1,1.00,0.00,1.1,0.9,1.1,0.9
307, ' 307 ',138,2,1,1,1,1.00,0.00,1.1,0.9,1.1,0.9
308, ' 308 ',138,1,1,1,1,1.00,0.00,1.1,0.9,1.1,0.9
309, ' 309 ',138,1,1,1,1,1.00,0.00,1.1,0.9,1.1,0.9
310, ' 310 ',138,1,1,1,1,1.00,0.00,1.1,0.9,1.1,0.9
311, ' 311 ',230,1,1,1,1,1.00,0.00,1.1,0.9,1.1,0.9
312, ' 312 ',230,1,1,1,1,1.00,0.00,1.1,0.9,1.1,0.9
313, ' 313 ',230,2,1,1,1,1.00,0.00,1.1,0.9,1.1,0.9
314, ' 314 ',230,2,1,1,1,1.00,0.00,1.1,0.9,1.1,0.9
315, ' 315 ',230,2,1,1,1,1.00,0.00,1.1,0.9,1.1,0.9
316, ' 316 ',230,2,1,1,1,1.00,0.00,1.1,0.9,1.1,0.9
317, ' 317 ',230,1,1,1,1,1.00,0.00,1.1,0.9,1.1,0.9
318, ' 318 ',230,2,1,1,1,1.00,0.00,1.1,0.9,1.1,0.9
319, ' 319 ',230,1,1,1,1,1.00,0.00,1.1,0.9,1.1,0.9
320, ' 320 ',230,1,1,1,1,1.00,0.00,1.1,0.9,1.1,0.9
321, ' 321 ',230,2,1,1,1,1.00,0.00,1.1,0.9,1.1,0.9
322, ' 322 ',230,2,1,1,1,1.00,0.00,1.1,0.9,1.1,0.9
323, ' 323 ',230,2,1,1,1,1.00,0.00,1.1,0.9,1.1,0.9
324, ' 324 ',230,1,1,1,1,1.00,0.00,1.1,0.9,1.1,0.9
325, ' 325 ',230,1,1,1,1,1.00,0.00,1.1,0.9,1.1,0.9
0 / END OF BUS DATA, BEGIN LOAD DATA
101, '1 ',1,11,11,92.98494554048123,16.933249662849494,0.0,0.0,0.0,0.0,1,1,0
102, '1 ',1,11,12,84.7463799172788,15.278228347387165,0.0,0.0,0.0,0.0,1,1,0
103, '1 ',1,11,11,96.87951667517702,30.645295946510508,0.0,0.0,0.0,0.0,1,1,0
104, '1 ',1,11,11,45.68574371640282,8.417925977260339,0.0,0.0,0.0,0.0,1,1,0
105, '1 ',1,11,11,41.29911304902658,9.98265947782416,0.0,0.0,0.0,0.0,1,1,0
106, '1 ',1,11,12,80.32678866052218,23.727817407492736,0.0,0.0,0.0,0.0,1,1,0
107, '1 ',1,11,12,106.95534894512386,16.996430702037177,0.0,0.0,0.0,0.0,1,1,0
108, '1 ',1,11,12,124.95775410413104,30.525769764414527,0.0,0.0,0.0,0.0,1,1,0
109, '1 ',1,11,13,108.20885601131944,29.813703050629424,0.0,0.0,0.0,0.0,1,1,0
110, '1 ',1,11,13,129.22719651453033,27.398170909116043,0.0,0.0,0.0,0.0,1,1,0
111, '1 ',1,11,13,0.0,0.0,0.0,0.0,0.0,0.0,1,1,0
112, '1 ',1,11,13,0.0,0.0,0.0,0.0,0.0,0.0,1,1,0
113, '1 ',1,12,14,146.68812429712247,34.31433954417798,0.0,0.0,0.0,0.0,1,1,0
114, '1 ',1,12,16,148.78119820216105,24.468046028356955,0.0,0.0,0.0,0.0,1,1,0
115, '1 ',1,12,16,242.60664270662744,52.874830642935635,0.0,0.0,0.0,0.0,1,1,0
116, '1 ',1,12,16,79.49561992285307,12.166856958188117,0.0,0.0,0.0,0.0,1,1,0
117, '1 ',1,12,17,0.0,0.0,0.0,0.0,0.0,0.0,1,1,0
118, '1 ',1,12,17,203.87746224210653,45.00696053613592,0.0,0.0,0.0,0.0,1,1,0
119, '1 ',1,12,15,157.2129901768423,21.09264771943227,0.0,0.0,0.0,0.0,1,1,0
120, '1 ',1,12,15,77.89347057507634,15.97315557747474,0.0,0.0,0.0,0.0,1,1,0
121, '1 ',1,12,17,0.0,0.0,0.0,0.0,0.0,0.0,1,1,0
122, '1 ',1,12,17,0.0,0.0,0.0,0.0,0.0,0.0,1,1,0
123, '1 ',1,12,15,0.0,0.0,0.0,0.0,0.0,0.0,1,1,0
124, '1 ',1,12,16,0.0,0.0,0.0,0.0,0.0,0.0,1,1,0
201, '1 ',1,21,21,68.63831235298755,14.329146002786235,0.0,0.0,0.0,0.0,1,1,0
202, '1 ',1,21,22,83.06120007408789,9.726305157872847,0.0,0.0,0.0,0.0,1,1,0
203, '1 ',1,21,21,158.00396337446944,24.734863697467976,0.0,0.0,0.0,0.0,1,1,0
204, '1 ',1,21,21,39.12930873108319,11.522591183600015,0.0,0.0,0.0,0.0,1,1,0
205, '1 ',1,21,21,38.98136431472982,8.08803946088478,0.0,0.0,0.0,0.0,1,1,0
206, '1 ',1,21,22,77.36552731971145,20.550538609539718,0.0,0.0,0.0,0.0,1,1,0
207, '1 ',1,21,22,100.39629838701804,19.499469640793976,0.0,0.0,0.0,0.0,1,1,0
208, '1 ',1,21,22,121.70540254088743,25.389417441119903,0.0,0.0,0.0,0.0,1,1,0
209, '1 ',1,21,23,131.01410790596972,25.57089451675583,0.0,0.0,0.0,0.0,1,1,0
210, '1 ',1,21,23,151.80697696556453,26.808691053126005,0.0,0.0,0.0,0.0,1,1,0
211, '1 ',1,21,23,0.0,0.0,0.0,0.0,0.0,0.0,1,1,0
212, '1 ',1,21,23,0.0,0.0,0.0,0.0,0.0,0.0,1,1,0
213, '1 ',1,22,24,229.37404993995327,43.4087293262802,0.0,0.0,0.0,0.0,1,1,0
214, '1 ',1,22,26,98.58939642944019,33.86323978733551,0.0,0.0,0.0,0.0,1,1,0
215, '1 ',1,22,26,233.0633271706728,41.75298448697626,0.0,0.0,0.0,0.0,1,1,0
216, '1 ',1,22,26,69.8186072315555,10.465592172056436,0.0,0.0,0.0,0.0,1,1,0
217, '1 ',1,22,27,0.0,0.0,0.0,0.0,0.0,0.0,1,1,0
218, '1 ',1,22,27,262.2094915468725,48.03861144943479,0.0,0.0,0.0,0.0,1,1,0
219, '1 ',1,22,25,109.63402213453884,25.765019726025592,0.0,0.0,0.0,0.0,1,1,0
220, '1 ',1,22,25,73.53154159115552,18.280678451437968,0.0,0.0,0.0,0.0,1,1,0
221, '1 ',1,22,27,0.0,0.0,0.0,0.0,0.0,0.0,1,1,0
222, '1 ',1,22,27,0.0,0.0,0.0,0.0,0.0,0.0,1,1,0
223, '1 ',1,22,25,0.0,0.0,0.0,0.0,0.0,0.0,1,1,0
224, '1 ',1,22,26,0.0,0.0,0.0,0.0,0.0,0.0,1,1,0
301, '1 ',1,31,31,90.21513505546264,14.420991822176614,0.0,0.0,0.0,0.0,1,1,0
302, '1 ',1,31,32,55.59550090703862,15.35329430270288,0.0,0.0,0.0,0.0,1,1,0
303, '1 ',1,31,31,98.79747166919242,19.84479964471268,0.0,0.0,0.0,0.0,1,1,0
304, '1 ',1,31,31,59.307170861198,10.848781112690688,0.0,0.0,0.0,0.0,1,1,0
305, '1 ',1,31,31,37.44812102057641,7.839425628117844,0.0,0.0,0.0,0.0,1,1,0
306, '1 ',1,31,32,107.54699783802332,15.083429339687525,0.0,0.0,0.0,0.0,1,1,0
307, '1 ',1,31,32,106.94395190861542,18.282000230971025,0.0,0.0,0.0,0.0,1,1,0
308, '1 ',1,31,32,150.65006301943885,22.3390327726244,0.0,0.0,0.0,0.0,1,1,0
309, '1 ',1,31,33,135.69665037823376,18.261893987875432,0.0,0.0,0.0,0.0,1,1,0
310, '1 ',1,31,33,112.19925918548809,23.996558690607547,0.0,0.0,0.0,0.0,1,1,0
311, '1 ',1,31,33,0.0,0.0,0.0,0.0,0.0,0.0,1,1,0
312, '1 ',1,31,33,0.0,0.0,0.0,0.0,0.0,0.0,1,1,0
313, '1 ',1,32,34,191.31896675667494,33.031910770566945,0.0,0.0,0.0,0.0,1,1,0
314, '1 ',1,32,36,149.30755133573274,20.852174529973187,0.0,0.0,0.0,0.0,1,1,0
315, '1 ',1,32,36,197.06125356409004,37.35579649744034,0.0,0.0,0.0,0.0,1,1,0
316, '1 ',1,32,36,86.1156646594964,14.530455974581653,0.0,0.0,0.0,0.0,1,1,0
317, '1 ',1,32,37,0.0,0.0,0.0,0.0,0.0,0.0,1,1,0
318, '1 ',1,32,37,190.76458102396745,46.20288812763635,0.0,0.0,0.0,0.0,1,1,0
319, '1 ',1,32,35,114.95503601495648,26.789414015030765,0.0,0.0,0.0,0.0,1,1,0
320, '1 ',1,32,35,97.8664698321998,14.523065099927132,0.0,0.0,0.0,0.0,1,1,0
321, '1 ',1,32,37,0.0,0.0,0.0,0.0,0.0,0.0,1,1,0
322, '1 ',1,32,37,0.0,0.0,0.0,0.0,0.0,0.0,1,1,0
323, '1 ',1,32,35,0.0,0.0,0.0,0.0,0.0,0.0,1,1,0
324, '1 ',1,32,36,0.0,0.0,0.0,0.0,0.0,0.0,1,1,0
325, '1 ',1,32,35,0.0,0.0,0.0,0.0,0.0,0.0,1,1,0
0 / END OF LOAD DATA, BEGIN FIXED SHUNT DATA
0 / END OF FIXED SHUNT DATA, BEGIN GENERATOR DATA
101,1,10,0,10.882026581093669,-0.3336562877520919,1.035,0,24,0,1,0,0,1,1,100,21.55785326473415,16.300570671940225,1,1,0,1
101,2,10,0,7.280545081943273,-0.6742875524796554,1.035,0,24,0,1,0,0,1,1,100,23.907150145620108,20.661072225738316,1,1,0,1
101,3,76,14.1,36.64477249793708,-19.61548283416778,1.035,0,89,0,1,0,0,1,1,100,72.46830722298473,11.072238832674927,1,1,0,1
101,4,76,14.1,33.29628622205928,-37.0899224660825,1.035,0,89,0,1,0,0,1,1,100,54.842309394292535,10.788838851712647,1,1,0,1
102,5,10,0,7.2465088735334575,-1.8124012732878327,1.035,0,24,0,1,0,0,1,1,100,24.402436007745564,19.33795459006913,1,1,0,1
102,6,10,0,11.993521260563284,1.486632945947349,1.035,0,24,0,1,0,0,1,1,100,15.033363069407642,10.255365544082597,1,1,0,1
102,7,76,7,36.66816605860368,-20.33560024015604,1.035,0,89,0,1,0,0,1,1,100,64.38416992556303,13.478702807538212,1,1,0,1
102,8,76,7,35.61169021669775,-14.972095512319356,1.035,0,89,0,1,0,0,1,1,100,55.05241048317402,53.030793464931655,1,1,0,1
107,9,80,17.2,60.3305185250938,4.66578668542207,1.025,0,118,0,1,0,0,1,1,100,104.4590766262263,43.90827793977224,1,1,0,1
107,10,80,17.2,52.15744037926197,-12.030816449783742,1.025,0,118,0,1,0,0,1,1,100,89.4179448671639,2.9458660597447306,1,1,0,1
107,11,80,17.2,46.44389768410474,-17.047602890990667,1.025,0,118,0,1,0,0,1,1,100,84.64862035121769,15.224091790150851,1,1,0,1
113,12,95.1,40.7,81.67806850373745,17.385222729295492,1.02,0,232,0,1,0,0,1,1,100,226.90800650073217,125.72460606023205,1,1,0,1
113,13,95.1,40.7,68.84452605247498,10.879160542041063,1.02,0,232,0,1,0,0,1,1,100,209.7696931095328,102.95054583185816,1,1,0,1
113,14,95.1,40.7,70.2807306163013,-7.89708561077714,1.02,0,232,0,1,0,0,1,1,100,203.3087701300159,54.8990166238346,1,1,0,1
114,15,0,13.7,154.9160691536963,-64.1945077944547,0.98,0,100,0,1,0,0,1,1,100,0.0,0.0,1,1,0,1
115,16,12,0,6.5638678117655225,1.8355803323909647,1.014,0,14,0,1,0,0,1,1,100,13.946058137901126,7.10247213218361,1,1,0,1
115,17,12,0,4.5875060353428125,0.07838162826374173,1.014,0,14,0,1,0,0,1,1,100,11.866162806004287,3.9822714552283296,1,1,0,1
115,18,12,0,5.605527496710419,-1.3309414071030927,1.014,0,14,0,1,0,0,1,1,100,11.845910025760531,0.9106037139147531,1,1,0,1
115,19,12,0,5.698710105847567,0.31732102660462225,1.014,0,14,0,1,0,0,1,1,100,10.509848104789853,3.513872577622533,1,1,0,1
115,20,12,0,7.733673613797874,0.4634777851402765,1.014,0,14,0,1,0,0,1,1,100,11.145541092753412,1.4326670345664034,1,1,0,1
115,21,155,0.05,103.97515810653567,-58.5839081807062,1.014,0,182,0,1,0,0,1,1,100,159.84375352226198,61.54436106578214,1,1,0,1
116,22,155,25.22,102.28085112944245,-55.74408038659021,1.017,0,182,0,1,0,0,1,1,100,195.41494766413234,124.49500033126678,1,1,0,1
118,23,400,137.4,211.1425040476024,-65.81221574917438,1.05,0,471,0,1,0,0,1,1,100,399.5644194819033,21.756829167716205,1,1,0,1
121,24,400,108.2,229.4654753897339,-89.69308248255408,1.05,0,471,0,1,0,0,1,1,100,366.0314261727035,144.53047479968518,1,1,0,1
122,25,50,-4.96,19.183286202698945,-14.323580384533855,1.05,0,53,0,1,0,0,1,1,100,35.77804017346352,35.40863770093725,1,1,0,1
122,26,50,-4.96,18.628860429674386,-3.6980746472254395,1.05,0,53,0,1,0,0,1,1,100,41.449157285969704,21.51447293885008,1,1,0,1
122,27,50,-4.96,13.441391249001025,-8.932211995497347,1.05,0,53,0,1,0,0,1,1,100,35.11441867100075,3.876945069799349,1,1,0,1
122,28,50,-4.96,19.109970667958258,-13.937165946792817,1.05,0,53,0,1,0,0,1,1,100,56.327955168671906,21.588404324059415,1,1,0,1
122,29,50,-4.96,15.829526128619909,-15.339096463192254,1.05,0,53,0,1,0,0,1,1,100,37.20718861091882,24.314413480235622,1,1,0,1
122,30,50,-4.96,12.087033037096262,-17.324640545248986,1.05,0,53,0,1,0,0,1,1,100,50.83923044847325,3.91224711094545,1,1,0,1
123,31,155,31.79,102.44560501351953,-15.323327396064997,1.05,0,182,0,1,0,0,1,1,100,118.72549169464037,42.06803404609673,1,1,0,1
123,32,155,31.79,68.3904937133193,-93.21247349260378,1.05,0,182,0,1,0,0,1,1,100,155.31844568438828,43.67919565722114,1,1,0,1
123,33,350,71.78,179.27224028622732,53.841474105138346,1.05,0,412,0,1,0,0,1,1,100,395.10240324074397,180.74830945162097,1,1,0,1
201,34,10,0,11.977113780099899,-0.49905508384108543,1.035,0,24,0,1,0,0,1,1,100,21.272111064754426,16.6175562892016,1,1,0,1
201,35,10,0,11.853075168095529,-0.8205847595818341,1.035,0,24,0,1,0,0,1,1,100,17.416525934822857,12.149194261804224,1,1,0,1
201,36,76,14.1,25.94085088279098,-41.65662593161687,1.035,0,89,0,1,0,0,1,1,100,60.55963074192404,15.259893489927052,1,1,0,1
201,37,76,14.1,31.65918444748968,-26.749653780367225,1.035,0,89,0,1,0,0,1,1,100,61.70901407878846,52.0331790903167,1,1,0,1
202,38,10,0,9.284854325465858,-0.06347729964181781,1.035,0,24,0,1,0,0,1,1,100,20.041202396154404,16.20291131852195,1,1,0,1
202,39,10,0,8.374375773593783,0.13192679593339562,1.035,0,24,0,1,0,0,1,1,100,25.254751108586788,21.51473740852438,1,1,0,1
202,40,76,7,24.46972187189385,-34.77806079923177,1.035,0,89,0,1,0,0,1,1,100,57.300373889692125,19.0872113842376,1,1,0,1
202,41,76,7,35.944617378059775,-18.836356681073084,1.035,0,89,0,1,0,0,1,1,100,67.26485697384923,49.58916466765142,1,1,0,1
207,42,80,17.2,53.83278231136501,-6.880780479870737,1.025,0,118,0,1,0,0,1,1,100,123.32113748881967,48.373497352004065,1,1,0,1
207,43,80,17.2,77.39137664996088,13.84151217062027,1.025,0,118,0,1,0,0,1,1,100,79.81617592740804,48.59064460893085,1,1,0,1
207,44,80,17.2,67.71351200714707,8.399774906225502,1.025,0,118,0,1,0,0,1,1,100,124.86428999342026,38.02453928627075,1,1,0,1
213,45,95.1,40.7,61.79055747389793,-36.89396161213519,1.02,0,232,0,1,0,0,1,1,100,218.99604707076216,58.05169933030848,1,1,0,1
213,46,95.1,40.7,78.4276819229126,-23.58648932352662,1.02,0,232,0,1,0,0,1,1,100,214.86670641642993,118.5404872802575,1,1,0,1
213,47,95.1,40.7,84.09045684710145,7.947431210428476,1.02,0,232,0,1,0,0,1,1,100,246.9932920720894,151.3801553765498,1,1,0,1
214,48,0,13.68,169.37250790186224,-34.58587109809744,0.98,0,100,0,1,0,0,1,1,100,0.0,0.0,1,1,0,1
215,49,12,0,5.102235876023769,-1.8344158748164778,1.014,0,14,0,1,0,0,1,1,100,13.741340295039116,1.5452655759081235,1,1,0,1
215,50,12,0,5.3246794148348275,0.017121071554720757,1.014,0,14,0,1,0,0,1,1,100,12.886474950984121,4.958288056924941,1,1,0,1
215,51,12,0,6.676825622096658,1.416048551257699,1.014,0,14,0,1,0,0,1,1,100,14.962724746763708,3.924102707505229,1,1,0,1
215,52,12,0,4.909840386360884,-1.1098868359811611,1.014,0,14,0,1,0,0,1,1,100,11.168196902610362,0.39859965238720285,1,1,0,1
215,53,12,0,6.733931735437363,0.2671272207051514,1.014,0,14,0,1,0,0,1,1,100,13.73938493616879,2.381672309562566,1,1,0,1
215,54,155,0.048,80.27604013308883,-26.384702930226908,1.014,0,182,0,1,0,0,1,1,100,174.85006514913402,49.97520515120122,1,1,0,1
216,55,155,25.22,98.88783979415894,-32.21559243882075,1.017,0,182,0,1,0,0,1,1,100,160.84528830368072,87.34935026341118,1,1,0,1
218,56,400,137.4,246.82693777605894,-29.413060769438715,1.05,0,471,0,1,0,0,1,1,100,341.9208168797195,220.69329007286677,1,1,0,1
221,57,400,108.2,207.98594631254673,-28.361524026840925,1.05,0,471,0,1,0,0,1,1,100,280.1290282793343,253.95128201233635,1,1,0,1
222,58,50,-4.96,18.749237006902696,-5.407823459245261,1.05,0,53,0,1,0,0,1,1,100,60.81362659577281,4.900834788568325,1,1,0,1
222,59,50,-4.96,19.308760572969916,-9.124344395939257,1.05,0,53,0,1,0,0,1,1,100,51.93718001712113,2.835001414641731,1,1,0,1
222,60,50,-4.96,20.57654729932547,0.38956398330629227,1.05,0,53,0,1,0,0,1,1,100,39.023421795573086,23.179591545145048,1,1,0,1
222,61,50,-4.96,18.713978374749423,-13.116225557588038,1.05,0,53,0,1,0,0,1,1,100,61.57243887893855,9.21441656537354,1,1,0,1
222,62,50,-4.96,20.45843326598406,-7.917064034659415,1.05,0,53,0,1,0,0,1,1,100,46.60802909638733,7.610331164172363,1,1,0,1
222,63,50,-4.96,13.565023279190063,-18.24521140782163,1.05,0,53,0,1,0,0,1,1,100,35.85622736951336,33.79701807178445,1,1,0,1
223,64,155,31.79,94.75222297385335,-51.041650413535535,1.05,0,182,0,1,0,0,1,1,100,173.31909738713875,70.36688092572149,1,1,0,1
223,65,155,31.79,84.43921651691198,-51.18082942906767,1.05,0,182,0,1,0,0,1,1,100,127.39645336195827,6.181370479601881,1,1,0,1
223,66,350,71.78,147.8343082498759,-51.327204847475514,1.05,0,412,0,1,0,0,1,1,100,439.10780130187055,270.2762196906843,1,1,0,1
301,67,10,0,10.945581185631454,2.4901640731841326,1.035,0,24,0,1,0,0,1,1,100,23.864925688132644,19.480827376106753,1,1,0,1
301,68,10,0,10.639717451762408,3.6238509714603424,1.035,0,24,0,1,0,0,1,1,100,15.934584708884358,12.291017230730505,1,1,0,1
301,69,76,14.1,23.290573059115555,-27.640127392718572,1.035,0,89,0,1,0,0,1,1,100,83.75322274416685,40.05055434986949,1,1,0,1
301,70,76,14.1,26.326675899792463,-36.36311387061141,1.035,0,89,0,1,0,0,1,1,100,72.86710801646113,20.834066284894945,1,1,0,1
302,71,10,0,10.360059078782797,-1.1053045727312565,1.035,0,24,0,1,0,0,1,1,100,22.88732309266925,18.110883433232086,1,1,0,1
302,72,10,0,10.429874614346772,2.537193106021732,1.035,0,24,0,1,0,0,1,1,100,14.330330449156463,10.932218568827958,1,1,0,1
302,73,76,7,38.76391829922795,-11.077588267624378,1.035,0,89,0,1,0,0,1,1,100,60.52578372228891,6.577482654340571,1,1,0,1
302,74,76,7,32.19068397441879,-19.163361618528143,1.035,0,89,0,1,0,0,1,1,100,85.29683090355248,41.996857576631015,1,1,0,1
307,75,80,17.2,52.362688385881484,2.097345309332013,1.025,0,118,0,1,0,0,1,1,100,98.58869789168239,14.438998779514804,1,1,0,1
307,76,80,17.2,53.976635911501944,-19.53751883469522,1.025,0,118,0,1,0,0,1,1,100,114.11274916026741,46.15038727060892,1,1,0,1
307,77,80,17.2,72.45815191604197,7.090600940398872,1.025,0,118,0,1,0,0,1,1,100,102.58138875942677,17.71868518088013,1,1,0,1
313,78,95.1,40.7,102.83165346831083,2.9769446812570095,1.02,0,232,0,1,0,0,1,1,100,170.95827140435574,48.42636040239127,1,1,0,1
313,79,95.1,40.7,97.37623484805226,30.083606097847223,1.02,0,232,0,1,0,0,1,1,100,183.01664635860362,46.872120862335436,1,1,0,1
313,80,95.1,40.7,100.78724119067192,12.36741590872407,1.02,0,232,0,1,0,0,1,1,100,249.04450453189202,123.9868689207034,1,1,0,1
314,81,0,13.68,239.8230354953557,26.472645283210994,0.98,0,100,0,1,0,0,1,1,100,0.0,0.0,1,1,0,1
315,82,12,0,4.356113246642053,-1.8248947377316647,1.014,0,14,0,1,0,0,1,1,100,9.420680645294487,0.6926677520768683,1,1,0,1
315,83,12,0,7.4014882600866265,-0.07770267482846904,1.014,0,14,0,1,0,0,1,1,100,15.314015988260508,8.533885774612429,1,1,0,1
315,84,12,0,4.350192498229443,0.07863782029598898,1.014,0,14,0,1,0,0,1,1,100,14.822556845471265,6.820315975025299,1,1,0,1
315,85,12,0,4.391150743514299,-0.5226669665426016,1.014,0,14,0,1,0,0,1,1,100,13.520667253062129,3.096812278255822,1,1,0,1
315,86,12,0,5.984978199563921,-1.0149937159381803,1.014,0,14,0,1,0,0,1,1,100,14.671120927110316,7.037628761306407,1,1,0,1
315,87,155,0.048,96.35848675295712,-11.612546481657759,1.014,0,182,0,1,0,0,1,1,100,112.44668469321914,80.22265318733956,1,1,0,1
316,88,155,25.22,74.71603724360466,-41.02705663954839,1.017,0,182,0,1,0,0,1,1,100,194.37399771017954,89.33829976583365,1,1,0,1
318,89,400,137.4,195.70004274137318,-38.82109195692465,1.05,0,471,0,1,0,0,1,1,100,316.0710776783526,45.78269714023918,1,1,0,1
321,90,400,108.2,156.09984131529927,-29.08465027343479,1.05,0,471,0,1,0,0,1,1,100,430.4914248920977,137.60684022214264,1,1,0,1
322,91,50,-4.96,15.964551281929015,-15.708730365429073,1.05,0,53,0,1,0,0,1,1,100,35.12654905207455,8.923657632066918,1,1,0,1
322,92,50,-4.96,15.251150191575288,-14.618968145921826,1.05,0,53,0,1,0,0,1,1,100,37.40530563518405,12.637174718801038,1,1,0,1
322,93,50,-4.96,14.377082780748605,-16.50989222638309,1.05,0,53,0,1,0,0,1,1,100,48.7279928708449,12.107728759895341,1,1,0,1
322,94,50,-4.96,18.354602550715207,-4.081409119721503,1.05,0,53,0,1,0,0,1,1,100,56.74399462761357,39.65317579926834,1,1,0,1
322,95,50,-4.96,18.379006537795068,-4.003906269185244,1.05,0,53,0,1,0,0,1,1,100,46.191378883086145,3.557627156842507,1,1,0,1
322,96,50,-4.96,17.952323260158302,-3.3117181359790244,1.05,0,53,0,1,0,0,1,1,100,38.93833963898942,19.278262371791243,1,1,0,1
323,97,155,31.79,83.72556022554636,-64.10789817152545,1.05,0,182,0,1,0,0,1,1,100,111.31188801699317,94.7076046714223,1,1,0,1
323,98,155,31.79,68.28919223323464,-58.848617488052696,1.05,0,182,0,1,0,0,1,1,100,187.7954237239901,74.97849877235713,1,1,0,1
323,99,350,71.78,175.5547288712114,-30.901719564572005,1.05,0,412,0,1,0,0,1,1,100,414.7877583396621,163.52009687200186,1,1,0,1
0 / END OF GENERATOR DATA, BEGIN BRANCH DATA
101,102,1,0.003,0.014,0.461,210.0,231.6,240.0,0,0,0,0,1,1,0,1,1
101,103,1,0.055,0.211,0.057,210.0,249.6,264.0,0,0,0,0,1,1,0,1,1
101,105,1,0.022,0.085,0.023,210.0,249.6,264.0,0,0,0,0,1,1,0,1,1
102,104,1,0.033,0.127,0.034,210.0,249.6,264.0,0,0,0,0,1,1,0,1,1
102,106,1,0.05,0.192,0.052,210.0,249.6,264.0,0,0,0,0,1,1,0,1,1
103,109,1,0.031,0.119,0.032,210.0,249.6,264.0,0,0,0,0,1,1,0,1,1
104,109,1,0.027,0.104,0.028,210.0,249.6,264.0,0,0,0,0,1,1,0,1,1
105,110,1,0.023,0.088,0.024,210.0,249.6,264.0,0,0,0,0,1,1,0,1,1
106,110,1,0.014,0.061,2.459,210.0,231.6,240.0,0,0,0,0,1,1,0,1,1
107,108,1,0.016,0.061,0.017,210.0,249.6,264.0,0,0,0,0,1,1,0,1,1
107,203,1,0.042,0.161,0.044,210.0,249.6,264.0,0,0,0,0,1,1,0,1,1
108,109,1,0.043,0.165,0.045,210.0,249.6,264.0,0,0,0,0,1,1,0,1,1
108,110,1,0.043,0.165,0.045,210.0,249.6,264.0,0,0,0,0,1,1,0,1,1
111,113,1,0.006,0.048,0.1,600.0,720.0,750.0,0,0,0,0,1,1,0,1,1
111,114,1,0.005,0.042,0.088,600.0,720.0,750.0,0,0,0,0,1,1,0,1,1
112,113,1,0.006,0.048,0.1,600.0,720.0,750.0,0,0,0,0,1,1,0,1,1
112,123,1,0.012,0.097,0.203,600.0,720.0,750.0,0,0,0,0,1,1,0,1,1
113,123,1,0.011,0.087,0.182,600.0,720.0,750.0,0,0,0,0,1,1,0,1,1
113,215,1,0.01,0.075,0.158,600.0,720.0,750.0,0,0,0,0,1,1,0,1,1
114,116,1,0.005,0.059,0.082,600.0,720.0,750.0,0,0,0,0,1,1,0,1,1
115,116,1,0.002,0.017,0.036,600.0,720.0,750.0,0,0,0,0,1,1,0,1,1
115,121,1,0.006,0.049,0.103,600.0,720.0,750.0,0,0,0,0,1,1,0,1,1
115,121,2,0.006,0.049,0.103,600.0,720.0,750.0,0,0,0,0,1,1,0,1,1
115,124,1,0.007,0.052,0.109,600.0,720.0,750.0,0,0,0,0,1,1,0,1,1
116,117,1,0.003,0.026,0.055,600.0,720.0,750.0,0,0,0,0,1,1,0,1,1
116,119,1,0.003,0.023,0.049,600.0,720.0,750.0,0,0,0,0,1,1,0,1,1
117,118,1,0.002,0.014,0.03,600.0,720.0,750.0,0,0,0,0,1,1,0,1,1
117,122,1,0.014,0.105,0.221,600.0,720.0,750.0,0,0,0,0,1,1,0,1,1
118,121,1,0.003,0.026,0.055,600.0,720.0,750.0,0,0,0,0,1,1,0,1,1
118,121,2,0.003,0.026,0.055,600.0,720.0,750.0,0,0,0,0,1,1,0,1,1
119,120,1,0.005,0.04,0.083,600.0,720.0,750.0,0,0,0,0,1,1,0,1,1
119,120,2,0.005,0.04,0.083,600.0,720.0,750.0,0,0,0,0,1,1,0,1,1
120,123,1,0.003,0.022,0.046,600.0,720.0,750.0,0,0,0,0,1,1,0,1,1
120,123,2,0.003,0.022,0.046,600.0,720.0,750.0,0,0,0,0,1,1,0,1,1
121,122,1,0.009,0.068,0.142,600.0,720.0,750.0,0,0,0,0,1,1,0,1,1
123,217,1,0.01,0.074,0.155,600.0,720.0,750.0,0,0,0,0,1,1,0,1,1
201,202,1,0.003,0.014,0.461,210.0,231.6,240.0,0,0,0,0,1,1,0,1,1
201,203,1,0.055,0.211,0.057,210.0,249.6,264.0,0,0,0,0,1,1,0,1,1
201,205,1,0.022,0.085,0.023,210.0,249.6,264.0,0,0,0,0,1,1,0,1,1
202,204,1,0.033,0.127,0.034,210.0,249.6,264.0,0,0,0,0,1,1,0,1,1
202,206,1,0.05,0.192,0.052,210.0,249.6,264.0,0,0,0,0,1,1,0,1,1
203,209,1,0.031,0.119,0.032,210.0,249.6,264.0,0,0,0,0,1,1,0,1,1
204,209,1,0.027,0.104,0.028,210.0,249.6,264.0,0,0,0,0,1,1,0,1,1
205,210,1,0.023,0.088,0.024,210.0,249.6,264.0,0,0,0,0,1,1,0,1,1
206,210,1,0.014,0.061,2.459,210.0,231.6,240.0,0,0,0,0,1,1,0,1,1
207,208,1,0.016,0.061,0.017,210.0,249.6,264.0,0,0,0,0,1,1,0,1,1
208,209,1,0.043,0.165,0.045,210.0,249.6,264.0,0,0,0,0,1,1,0,1,1
208,210,1,0.043,0.165,0.045,210.0,249.6,264.0,0,0,0,0,1,1,0,1,1
211,213,1,0.006,0.048,0.1,600.0,720.0,750.0,0,0,0,0,1,1,0,1,1
211,214,1,0.005,0.042,0.088,600.0,720.0,750.0,0,0,0,0,1,1,0,1,1
212,213,1,0.006,0.048,0.1,600.0,720.0,750.0,0,0,0,0,1,1,0,1,1
212,223,1,0.012,0.097,0.203,600.0,720.0,750.0,0,0,0,0,1,1,0,1,1
213,223,1,0.011,0.087,0.182,600.0,720.0,750.0,0,0,0,0,1,1,0,1,1
214,216,1,0.005,0.059,0.082,600.0,720.0,750.0,0,0,0,0,1,1,0,1,1
215,216,1,0.002,0.017,0.036,600.0,720.0,750.0,0,0,0,0,1,1,0,1,1
215,221,1,0.006,0.049,0.103,600.0,720.0,750.0,0,0,0,0,1,1,0,1,1
215,221,2,0.006,0.049,0.103,600.0,720.0,750.0,0,0,0,0,1,1,0,1,1
215,224,1,0.007,0.052,0.109,600.0,720.0,750.0,0,0,0,0,1,1,0,1,1
216,217,1,0.003,0.026,0.055,600.0,720.0,750.0,0,0,0,0,1,1,0,1,1
216,219,1,0.003,0.023,0.049,600.0,720.0,750.0,0,0,0,0,1,1,0,1,1
217,218,1,0.002,0.014,0.03,600.0,720.0,750.0,0,0,0,0,1,1,0,1,1
217,222,1,0.014,0.105,0.221,600.0,720.0,750.0,0,0,0,0,1,1,0,1,1
218,221,1,0.003,0.026,0.055,600.0,720.0,750.0,0,0,0,0,1,1,0,1,1
218,221,2,0.003,0.026,0.055,600.0,720.0,750.0,0,0,0,0,1,1,0,1,1
219,220,1,0.005,0.04,0.083,600.0,720.0,750.0,0,0,0,0,1,1,0,1,1
219,220,2,0.005,0.04,0.083,600.0,720.0,750.0,0,0,0,0,1,1,0,1,1
220,223,1,0.003,0.022,0.046,600.0,720.0,750.0,0,0,0,0,1,1,0,1,1
220,223,2,0.003,0.022,0.046,600.0,720.0,750.0,0,0,0,0,1,1,0,1,1
221,222,1,0.009,0.068,0.142,600.0,720.0,750.0,0,0,0,0,1,1,0,1,1
301,302,1,0.003,0.014,0.461,210.0,231.6,240.0,0,0,0,0,1,1,0,1,1
301,303,1,0.055,0.211,0.057,210.0,249.6,264.0,0,0,0,0,1,1,0,1,1
301,305,1,0.022,0.085,0.023,210.0,249.6,264.0,0,0,0,0,1,1,0,1,1
302,304,1,0.033,0.127,0.034,210.0,249.6,264.0,0,0,0,0,1,1,0,1,1
302,306,1,0.05,0.192,0.052,210.0,249.6,264.0,0,0,0,0,1,1,0,1,1
303,309,1,0.031,0.119,0.032,210.0,249.6,264.0,0,0,0,0,1,1,0,1,1
304,309,1,0.027,0.104,0.028,210.0,249.6,264.0,0,0,0,0,1,1,0,1,1
305,310,1,0.023,0.088,0.024,210.0,249.6,264.0,0,0,0,0,1,1,0,1,1
306,310,1,0.014,0.061,2.459,210.0,231.6,240.0,0,0,0,0,1,1,0,1,1
307,308,1,0.016,0.061,0.017,210.0,249.6,264.0,0,0,0,0,1,1,0,1,1
308,309,1,0.043,0.165,0.045,210.0,249.6,264.0,0,0,0,0,1,1,0,1,1
308,310,1,0.043,0.165,0.045,210.0,249.6,264.0,0,0,0,0,1,1,0,1,1
311,313,1,0.006,0.048,0.1,600.0,720.0,750.0,0,0,0,0,1,1,0,1,1
311,314,1,0.005,0.042,0.088,600.0,720.0,750.0,0,0,0,0,1,1,0,1,1
312,313,1,0.006,0.048,0.1,600.0,720.0,750.0,0,0,0,0,1,1,0,1,1
312,323,1,0.012,0.097,0.203,600.0,720.0,750.0,0,0,0,0,1,1,0,1,1
313,323,1,0.011,0.087,0.182,600.0,720.0,750.0,0,0,0,0,1,1,0,1,1
314,316,1,0.005,0.059,0.082,600.0,720.0,750.0,0,0,0,0,1,1,0,1,1
315,316,1,0.002,0.017,0.036,600.0,720.0,750.0,0,0,0,0,1,1,0,1,1
315,321,1,0.006,0.049,0.103,600.0,720.0,750.0,0,0,0,0,1,1,0,1,1
315,321,2,0.006,0.049,0.103,600.0,720.0,750.0,0,0,0,0,1,1,0,1,1
315,324,1,0.007,0.052,0.109,600.0,720.0,750.0,0,0,0,0,1,1,0,1,1
316,317,1,0.003,0.026,0.055,600.0,720.0,750.0,0,0,0,0,1,1,0,1,1
316,319,1,0.003,0.023,0.049,600.0,720.0,750.0,0,0,0,0,1,1,0,1,1
317,318,1,0.002,0.014,0.03,600.0,720.0,750.0,0,0,0,0,1,1,0,1,1
317,322,1,0.014,0.105,0.221,600.0,720.0,750.0,0,0,0,0,1,1,0,1,1
318,223,1,0.013,0.104,0.218,600.0,720.0,750.0,0,0,0,0,1,1,0,1,1
318,321,1,0.003,0.026,0.055,600.0,720.0,750.0,0,0,0,0,1,1,0,1,1
318,321,2,0.003,0.026,0.055,600.0,720.0,750.0,0,0,0,0,1,1,0,1,1
319,320,1,0.005,0.04,0.083,600.0,720.0,750.0,0,0,0,0,1,1,0,1,1
319,320,2,0.005,0.04,0.083,600.0,720.0,750.0,0,0,0,0,1,1,0,1,1
320,323,1,0.003,0.022,0.046,600.0,720.0,750.0,0,0,0,0,1,1,0,1,1
320,323,2,0.003,0.022,0.046,600.0,720.0,750.0,0,0,0,0,1,1,0,1,1
321,322,1,0.009,0.068,0.142,600.0,720.0,750.0,0,0,0,0,1,1,0,1,1
323,325,1,0,0.009,0,866.4,1071.6,1071.6,0,0,0,0,1,1,0,1,1
0 / END OF BRANCH DATA, BEGIN TRANSFORMER DATA
  103 ,  124 , 0,  1 , 1, 1, 1, 0, 0, 2, '            ',  1 , 1, 1
   0.002000 ,  0.084000 ,  100.000000
   1.015000 , 0,  0.000000 ,  400.000000 ,  510.000000 ,  600.000000 , 0, 0,  1.10 ,  0.90 ,  1.10 ,  0.90 , 33, 0, 0, 0
   1.000000, 0
  109 ,  111 , 0,  1 , 1, 1, 1, 0, 0, 2, '            ',  1 , 1, 1
   0.002000 ,  0.084000 ,  100.000000
   1.030000 , 0,  0.000000 ,  400.000000 ,  510.000000 ,  600.000000 , 0, 0,  1.10 ,  0.90 ,  1.10 ,  0.90 , 33, 0, 0, 0
   1.000000, 0
  109 ,  112 , 0,  1 , 1, 1, 1, 0, 0, 2, '            ',  1 , 1, 1
   0.002000 ,  0.084000 ,  100.000000
   1.030000 , 0,  0.000000 ,  400.000000 ,  510.000000 ,  600.000000 , 0, 0,  1.10 ,  0.90 ,  1.10 ,  0.90 , 33, 0, 0, 0
   1.000000, 0
  110 ,  111 , 0,  1 , 1, 1, 1, 0, 0, 2, '            ',  1 , 1, 1
   0.002000 ,  0.084000 ,  100.000000
   1.015000 , 0,  0.000000 ,  400.000000 ,  510.000000 ,  600.000000 , 0, 0,  1.10 ,  0.90 ,  1.10 ,  0.90 , 33, 0, 0, 0
   1.000000, 0
  110 ,  112 , 0,  1 , 1, 1, 1, 0, 0, 2, '            ',  1 , 1, 1
   0.002000 ,  0.084000 ,  100.000000
   1.015000 , 0,  0.000000 ,  400.000000 ,  510.000000 ,  600.000000 , 0, 0,  1.10 ,  0.90 ,  1.10 ,  0.90 , 33, 0, 0, 0
   1.000000, 0
  203 ,  224 , 0,  1 , 1, 1, 1, 0, 0, 2, '            ',  1 , 1, 1
   0.002000 ,  0.084000 ,  100.000000
   1.015000 , 0,  0.000000 ,  400.000000 ,  510.000000 ,  600.000000 , 0, 0,  1.10 ,  0.90 ,  1.10 ,  0.90 , 33, 0, 0, 0
   1.000000, 0
  209 ,  211 , 0,  1 , 1, 1, 1, 0, 0, 2, '            ',  1 , 1, 1
   0.002000 ,  0.084000 ,  100.000000
   1.030000 , 0,  0.000000 ,  400.000000 ,  510.000000 ,  600.000000 , 0, 0,  1.10 ,  0.90 ,  1.10 ,  0.90 , 33, 0, 0, 0
   1.000000, 0
  209 ,  212 , 0,  1 , 1, 1, 1, 0, 0, 2, '            ',  1 , 1, 1
   0.002000 ,  0.084000 ,  100.000000
   1.030000 , 0,  0.000000 ,  400.000000 ,  510.000000 ,  600.000000 , 0, 0,  1.10 ,  0.90 ,  1.10 ,  0.90 , 33, 0, 0, 0
   1.000000, 0
  210 ,  211 , 0,  1 , 1, 1, 1, 0, 0, 2, '            ',  1 , 1, 1
   0.002000 ,  0.084000 ,  100.000000
   1.015000 , 0,  0.000000 ,  400.000000 ,  510.000000 ,  600.000000 , 0, 0,  1.10 ,  0.90 ,  1.10 ,  0.90 , 33, 0, 0, 0
   1.000000, 0
  210 ,  212 , 0,  1 , 1, 1, 1, 0, 0, 2, '            ',  1 , 1, 1
   0.002000 ,  0.084000 ,  100.000000
   1.015000 , 0,  0.000000 ,  400.000000 ,  510.000000 ,  600.000000 , 0, 0,  1.10 ,  0.90 ,  1.10 ,  0.90 , 33, 0, 0, 0
   1.000000, 0
  303 ,  324 , 0,  1 , 1, 1, 1, 0, 0, 2, '            ',  1 , 1, 1
   0.002000 ,  0.084000 ,  100.000000
   1.015000 , 0,  0.000000 ,  400.000000 ,  510.000000 ,  600.000000 , 0, 0,  1.10 ,  0.90 ,  1.10 ,  0.90 , 33, 0, 0, 0
   1.000000, 0
  309 ,  311 , 0,  1 , 1, 1, 1, 0, 0, 2, '            ',  1 , 1, 1
   0.002000 ,  0.084000 ,  100.000000
   1.030000 , 0,  0.000000 ,  400.000000 ,  510.000000 ,  600.000000 , 0, 0,  1.10 ,  0.90 ,  1.10 ,  0.90 , 33, 0, 0, 0
   1.000000, 0
  309 ,  312 , 0,  1 , 1, 1, 1, 0, 0, 2, '            ',  1 , 1, 1
   0.002000 ,  0.084000 ,  100.000000
   1.030000 , 0,  0.000000 ,  400.000000 ,  510.000000 ,  600.000000 , 0, 0,  1.10 ,  0.90 ,  1.10 ,  0.90 , 33, 0, 0, 0
   1.000000, 0
  310 ,  311 , 0,  1 , 1, 1, 1, 0, 0, 2, '            ',  1 , 1, 1
   0.002000 ,  0.084000 ,  100.000000
   1.015000 , 0,  0.000000 ,  400.000000 ,  510.000000 ,  600.000000 , 0, 0,  1.10 ,  0.90 ,  1.10 ,  0.90 , 33, 0, 0, 0
   1.000000, 0
  310 ,  312 , 0,  1 , 1, 1, 1, 0, 0, 2, '            ',  1 , 1, 1
   0.002000 ,  0.084000 ,  100.000000
   1.015000 , 0,  0.000000 ,  400.000000 ,  510.000000 ,  600.000000 , 0, 0,  1.10 ,  0.90 ,  1.10 ,  0.90 , 33, 0, 0, 0
   1.000000, 0
0 / END OF TRANSFORMER DATA, BEGIN AREA DATA
0 / END OF AREA DATA, BEGIN TWO-TERMINAL DC DATA
0 / END OF TWO-TERMINAL DC DATA, BEGIN VSC DC LINE DATA
0 / END OF VSC DC LINE DATA, BEGIN SWITCHED SHUNT DATA
0 / END OF SWITCHED SHUNT DATA, BEGIN IMPEDANCE CORRECTION DATA
0 / END OF IMPEDANCE CORRECTION DATA, BEGIN MULTI-TERMINAL DC DATA
0 / END OF MULTI-TERMINAL DC DATA, BEGIN MULTI-SECTION LINE DATA
0 / END OF MULTI-SECTION LINE DATA, BEGIN ZONE DATA
0 / END OF ZONE DATA, BEGIN INTER-AREA TRANSFER DATA
0 / END OF INTER-AREA TRANSFER DATA, BEGIN OWNER DATA
0 / END OF OWNER DATA, BEGIN FACTS CONTROL DEVICE DATA
0 / END OF FACTS CONTROL DEVICE DATA
0 / END OF SWITCHED SHUNT DATA, BEGIN GNE DATA
0 / END OF GNE DATA, BEGIN INDUCTION MACHINE DATA
0 / END OF INDUCTION MACHINE DATA
Q 
